data/ENWL_4w_Network1_Feeders1and2/Loads_v2.txt
! Feeder 1
! Imported from Loads.txt, with modified neutral terminal
! ---------------------------------------------------------------------------
New Load.F1_LOAD1 Phases=1 Bus1=F1_34.1.4 kV=0.2309 kW=1.0  PF=0.95
New Load.F1_LOAD2 Phases=1 Bus1=F1_47.2.4 kV=0.2309 kW=1.0  PF=0.95
New Load.F1_LOAD3 Phases=1 Bus1=F1_70.1.4 kV=0.2309 kW=1.0  PF=0.95
New Load.F1_LOAD4 Phases=1 Bus1=F1_73.1.4 kV=0.2309 kW=1.0  PF=0.95
New Load.F1_LOAD5 Phases=1 Bus1=F1_74.1.4 kV=0.2309 kW=1.0  PF=0.95
New Load.F1_LOAD6 Phases=1 Bus1=F1_83.2.4 kV=0.2309 kW=1.0  PF=0.95
New Load.F1_LOAD7 Phases=1 Bus1=F1_178.2.4 kV=0.2309 kW=1.0  PF=0.95
New Load.F1_LOAD8 Phases=1 Bus1=F1_208.3.4 kV=0.2309 kW=1.0  PF=0.95
New Load.F1_LOAD9 Phases=1 Bus1=F1_225.1.4 kV=0.2309 kW=1.0  PF=0.95
New Load.F1_LOAD10 Phases=1 Bus1=F1_248.2.4 kV=0.2309 kW=1.0  PF=0.95
New Load.F1_LOAD11 Phases=1 Bus1=F1_249.2.4 kV=0.2309 kW=1.0  PF=0.95
New Load.F1_LOAD12 Phases=1 Bus1=F1_264.3.4 kV=0.2309 kW=1.0  PF=0.95
! New Load.F1_LOAD13 Phases=1 Bus1=F1_276.2.4 kV=0.2309 kW=1.0  PF=0.95
New Load.F1_LOAD14 Phases=1 Bus1=F1_289.1.4 kV=0.2309 kW=1.0  PF=0.95
New Load.F1_LOAD15 Phases=1 Bus1=F1_314.2.4 kV=0.2309 kW=1.0  PF=0.95
New Load.F1_LOAD16 Phases=1 Bus1=F1_320.3.4 kV=0.2309 kW=1.0  PF=0.95
New Load.F1_LOAD17 Phases=1 Bus1=F1_327.3.4 kV=0.2309 kW=1.0  PF=0.95
New Load.F1_LOAD18 Phases=1 Bus1=F1_337.3.4 kV=0.2309 kW=1.0  PF=0.95
New Load.F1_LOAD19 Phases=1 Bus1=F1_342.3.4 kV=0.2309 kW=1.0  PF=0.95
New Load.F1_LOAD20 Phases=1 Bus1=F1_349.1.4 kV=0.2309 kW=1.0  PF=0.95
New Load.F1_LOAD21 Phases=1 Bus1=F1_387.1.4 kV=0.2309 kW=1.0  PF=0.95
New Load.F1_LOAD22 Phases=1 Bus1=F1_388.1.4 kV=0.2309 kW=1.0  PF=0.95
New Load.F1_LOAD23 Phases=1 Bus1=F1_406.2.4 kV=0.2309 kW=1.0  PF=0.95
New Load.F1_LOAD24 Phases=1 Bus1=F1_458.3.4 kV=0.2309 kW=1.0  PF=0.95
New Load.F1_LOAD25 Phases=1 Bus1=F1_502.1.4 kV=0.2309 kW=1.0  PF=0.95
New Load.F1_LOAD26 Phases=1 Bus1=F1_522.2.4 kV=0.2309 kW=1.0  PF=0.95
New Load.F1_LOAD27 Phases=1 Bus1=F1_539.3.4 kV=0.2309 kW=1.0  PF=0.95
! New Load.F1_LOAD28 Phases=1 Bus1=F1_556.3.4 kV=0.2309 kW=1.0  PF=0.95
New Load.F1_LOAD29 Phases=1 Bus1=F1_562.1.4 kV=0.2309 kW=1.0  PF=0.95
New Load.F1_LOAD30 Phases=1 Bus1=F1_563.1.4 kV=0.2309 kW=1.0  PF=0.95
New Load.F1_LOAD31 Phases=1 Bus1=F1_611.1.4 kV=0.2309 kW=1.0  PF=0.95
New Load.F1_LOAD32 Phases=1 Bus1=F1_614.3.4 kV=0.2309 kW=1.0  PF=0.95
New Load.F1_LOAD33 Phases=1 Bus1=F1_619.3.4 kV=0.2309 kW=1.0  PF=0.95
New Load.F1_LOAD34 Phases=1 Bus1=F1_629.1.4 kV=0.2309 kW=1.0  PF=0.95
New Load.F1_LOAD35 Phases=1 Bus1=F1_639.2.4 kV=0.2309 kW=1.0  PF=0.95
New Load.F1_LOAD36 Phases=1 Bus1=F1_676.2.4 kV=0.2309 kW=1.0  PF=0.95
New Load.F1_LOAD37 Phases=1 Bus1=F1_682.2.4 kV=0.2309 kW=1.0  PF=0.95
New Load.F1_LOAD38 Phases=1 Bus1=F1_688.2.4 kV=0.2309 kW=1.0  PF=0.95
New Load.F1_LOAD39 Phases=1 Bus1=F1_701.3.4 kV=0.2309 kW=1.0  PF=0.95
New Load.F1_LOAD40 Phases=1 Bus1=F1_702.2.4 kV=0.2309 kW=1.0  PF=0.95
New Load.F1_LOAD41 Phases=1 Bus1=F1_755.2.4 kV=0.2309 kW=1.0  PF=0.95
New Load.F1_LOAD42 Phases=1 Bus1=F1_778.3.4 kV=0.2309 kW=1.0  PF=0.95
New Load.F1_LOAD43 Phases=1 Bus1=F1_780.3.4 kV=0.2309 kW=1.0  PF=0.95
New Load.F1_LOAD44 Phases=1 Bus1=F1_785.2.4 kV=0.2309 kW=1.0  PF=0.95
New Load.F1_LOAD45 Phases=1 Bus1=F1_813.2.4 kV=0.2309 kW=1.0  PF=0.95
New Load.F1_LOAD46 Phases=1 Bus1=F1_817.1.4 kV=0.2309 kW=1.0  PF=0.95
New Load.F1_LOAD47 Phases=1 Bus1=F1_835.3.4 kV=0.2309 kW=1.0  PF=0.95
New Load.F1_LOAD48 Phases=1 Bus1=F1_860.1.4 kV=0.2309 kW=1.0  PF=0.95
New Load.F1_LOAD49 Phases=1 Bus1=F1_861.1.4 kV=0.2309 kW=1.0  PF=0.95
New Load.F1_LOAD50 Phases=1 Bus1=F1_886.2.4 kV=0.2309 kW=1.0  PF=0.95
New Load.F1_LOAD51 Phases=1 Bus1=F1_896.1.4 kV=0.2309 kW=1.0  PF=0.95
New Load.F1_LOAD52 Phases=1 Bus1=F1_898.1.4 kV=0.2309 kW=1.0  PF=0.95
! New Load.F1_LOAD53 Phases=1 Bus1=F1_899.2.4 kV=0.2309 kW=1.0  PF=0.95
New Load.F1_LOAD54 Phases=1 Bus1=F1_900.1.4 kV=0.2309 kW=1.0  PF=0.95
New Load.F1_LOAD55 Phases=1 Bus1=F1_906.1.4 kV=0.2309 kW=1.0  PF=0.95
! ---------------------------------------------------------------------------

! Feeder 2
! Imported from Loads.txt, with modified neutral terminal 
! ---------------------------------------------------------------------------
New Load.F2_LOAD1 Phases=1 Bus1=F2_115.1.4 kV=0.2309 kW=1.0  PF=0.95
New Load.F2_LOAD2 Phases=1 Bus1=F2_181.1.4 kV=0.2309 kW=1.0  PF=0.95
New Load.F2_LOAD3 Phases=1 Bus1=F2_196.3.4 kV=0.2309 kW=1.0  PF=0.95
New Load.F2_LOAD4 Phases=1 Bus1=F2_219.1.4 kV=0.2309 kW=1.0  PF=0.95
New Load.F2_LOAD5 Phases=1 Bus1=F2_222.2.4 kV=0.2309 kW=1.0  PF=0.95
New Load.F2_LOAD6 Phases=1 Bus1=F2_223.2.4 kV=0.2309 kW=1.0  PF=0.95
New Load.F2_LOAD7 Phases=1 Bus1=F2_232.3.4 kV=0.2309 kW=1.0  PF=0.95
New Load.F2_LOAD8 Phases=1 Bus1=F2_240.1.4 kV=0.2309 kW=1.0  PF=0.95
New Load.F2_LOAD9 Phases=1 Bus1=F2_271.2.4 kV=0.2309 kW=1.0  PF=0.95
New Load.F2_LOAD10 Phases=1 Bus1=F2_278.1.4 kV=0.2309 kW=1.0  PF=0.95
New Load.F2_LOAD11 Phases=1 Bus1=F2_279.1.4 kV=0.2309 kW=1.0  PF=0.95
New Load.F2_LOAD12 Phases=1 Bus1=F2_284.1.4 kV=0.2309 kW=1.0  PF=0.95
New Load.F2_LOAD13 Phases=1 Bus1=F2_317.2.4 kV=0.2309 kW=1.0  PF=0.95
New Load.F2_LOAD14 Phases=1 Bus1=F2_326.1.4 kV=0.2309 kW=1.0  PF=0.95
New Load.F2_LOAD15 Phases=1 Bus1=F2_327.1.4 kV=0.2309 kW=1.0  PF=0.95
New Load.F2_LOAD16 Phases=1 Bus1=F2_332.3.4 kV=0.2309 kW=1.0  PF=0.95
New Load.F2_LOAD17 Phases=1 Bus1=F2_345.3.4 kV=0.2309 kW=1.0  PF=0.95
New Load.F2_LOAD18 Phases=1 Bus1=F2_356.2.4 kV=0.2309 kW=1.0  PF=0.95
New Load.F2_LOAD19 Phases=1 Bus1=F2_361.3.4 kV=0.2309 kW=1.0  PF=0.95
New Load.F2_LOAD20 Phases=1 Bus1=F2_362.3.4 kV=0.2309 kW=1.0  PF=0.95
New Load.F2_LOAD21 Phases=1 Bus1=F2_364.1.4 kV=0.2309 kW=1.0  PF=0.95
New Load.F2_LOAD22 Phases=1 Bus1=F2_399.2.4 kV=0.2309 kW=1.0  PF=0.95
New Load.F2_LOAD23 Phases=1 Bus1=F2_415.3.4 kV=0.2309 kW=1.0  PF=0.95
New Load.F2_LOAD24 Phases=1 Bus1=F2_440.2.4 kV=0.2309 kW=1.0  PF=0.95
New Load.F2_LOAD25 Phases=1 Bus1=F2_443.3.4 kV=0.2309 kW=1.0  PF=0.95
New Load.F2_LOAD26 Phases=1 Bus1=F2_455.2.4 kV=0.2309 kW=1.0  PF=0.95
New Load.F2_LOAD27 Phases=1 Bus1=F2_456.2.4 kV=0.2309 kW=1.0  PF=0.95
New Load.F2_LOAD28 Phases=1 Bus1=F2_461.2.4 kV=0.2309 kW=1.0  PF=0.95
New Load.F2_LOAD29 Phases=1 Bus1=F2_469.1.4 kV=0.2309 kW=1.0  PF=0.95
New Load.F2_LOAD30 Phases=1 Bus1=F2_477.2.4 kV=0.2309 kW=1.0  PF=0.95
New Load.F2_LOAD31 Phases=1 Bus1=F2_479.3.4 kV=0.2309 kW=1.0  PF=0.95
! ---------------------------------------------------------------------------